
     RDKit          3D

  9  8  0  0  0  0  0  0  0  0999 V2000
   -1.4283    0.4789    0.3578 O   0  0  0  0  0  0  0  0  0  0  0  0
   -0.5034   -0.4698   -0.0453 C   0  0  0  0  0  0  0  0  0  0  0  0
    0.8806    0.1135    0.0116 C   0  0  0  0  0  0  0  0  0  0  0  0
   -1.4418    1.2917   -0.1728 H   0  0  0  0  0  0  0  0  0  0  0  0
   -0.7307   -0.8786   -1.0552 H   0  0  0  0  0  0  0  0  0  0  0  0
   -0.5815   -1.3093    0.7019 H   0  0  0  0  0  0  0  0  0  0  0  0
    1.3517   -0.1831    0.9875 R   0  0  0  0  0  0  0  0  0  0  0  0
    0.9004    1.2153   -0.0052 H   0  0  0  0  0  0  0  0  0  0  0  0
    1.5530   -0.2586   -0.7803 H   0  0  0  0  0  0  0  0  0  0  0  0
  1  2  1  0
  1  4  1  0
  2  3  1  0
  2  5  1  0
  2  6  1  0
  3  7  1  0
  3  8  1  0
  3  9  1  0
M  END
$$$$
